obj01
  PyMOL2.6          3D                             0

 21 20  0  0  0  0  0  0  0  0999 V2000
   31.6390   -0.6330   38.3530 O   0  0  0  0  0  0  0  0  0  0  0  0
   34.0700    1.5330   39.6570 N   0  0  0  0  0  0  0  0  0  0  0  0
   34.5540    2.7850   39.0900 C   0  0  0  0  0  0  0  0  0  0  0  0
   33.9710    3.3540   38.2210 O   0  0  0  0  0  0  0  0  0  0  0  0
   35.7600    3.3520   39.5840 N   0  0  0  0  0  0  0  0  0  0  0  0
   36.4550    2.7000   40.6560 C   0  0  0  0  0  0  0  0  0  0  0  0
   37.6730    3.3220   41.1280 N   0  0  0  0  0  0  0  0  0  0  0  0
   39.5330    8.3710   39.2810 O   0  0  0  0  0  0  0  0  0  0  0  0
   35.9670    1.4330   41.2160 N   0  0  0  0  0  0  0  0  0  0  0  0
   36.6360    0.7380   42.3220 C   0  0  0  0  0  0  0  0  0  0  0  0
   35.9960    1.1940   43.6510 C   0  0  0  0  0  0  0  0  0  0  0  0
   36.4360    0.5820   44.8070 C   0  0  0  0  0  0  0  0  0  0  0  0
   35.8880    0.9480   46.0270 C   0  0  0  0  0  0  0  0  0  0  0  0
   34.9170    1.9370   46.0880 C   0  0  0  0  0  0  0  0  0  0  0  0
   34.4840    2.5800   44.9510 C   0  0  0  0  0  0  0  0  0  0  0  0
   35.0120    2.1930   43.7240 C   0  0  0  0  0  0  0  0  0  0  0  0
   34.7340    0.8700   40.7410 C   0  0  0  0  0  0  0  0  0  0  0  0
   34.3400   -0.1520   41.1960 O   0  0  0  0  0  0  0  0  0  0  0  0
   36.3150    0.3300   47.1760 F   0  0  0  0  0  0  0  0  0  0  0  0
   34.3950    2.3100   47.2880 F   0  0  0  0  0  0  0  0  0  0  0  0
   33.5310    3.5590   45.0740 F   0  0  0  0  0  0  0  0  0  0  0  0
  2  3  1  0  0  0  0
  3  4  2  0  0  0  0
  3  5  1  0  0  0  0
  5  6  2  0  0  0  0
  6  7  1  0  0  0  0
  6  9  1  0  0  0  0
  9 10  1  0  0  0  0
 10 11  1  0  0  0  0
 11 12  2  0  0  0  0
 12 13  1  0  0  0  0
 13 14  2  0  0  0  0
 14 15  1  0  0  0  0
 11 16  1  0  0  0  0
 15 16  2  0  0  0  0
  2 17  1  0  0  0  0
  9 17  1  0  0  0  0
 17 18  2  0  0  0  0
 13 19  1  0  0  0  0
 14 20  1  0  0  0  0
 15 21  1  0  0  0  0
M  END
$$$$
