obj02
  PyMOL2.6          3D                             0

  4  0  0  0  0  0  0  0  0  0999 V2000
  -26.0850  -20.7280   -4.4390 O   0  0  0  0  0  0  0  0  0  0  0  0
  -24.6020  -20.2710   -6.0260 O   0  0  0  0  0  0  0  0  0  0  0  0
  -25.7160  -20.1780   -5.4960 C   0  0  0  0  0  0  0  0  0  0  0  0
  -26.5160  -19.1960   -7.5520 N   0  0  0  0  0  0  0  0  0  0  0  0
M  END
$$$$
